Circuit: * Z:\home\brandon\sketchbook\spice\colpitts_jfet.asc

.OP point found by inspection.

Date: Tue May 24 14:30:35 2016
Total elapsed time: 1.444 seconds.

tnom = 27
temp = 27
method = modified trap
totiter = 534497
traniter = 534497
tranpoints = 178518
accept = 123291
rejected = 55227
matrix size = 6
fillins = 0
solver = Normal
Matrix Compiler1: 360 bytes object code size  0.2/0.2/[0.2]
Matrix Compiler2: 462 bytes object code size  0.2/0.2/[0.2]


