Circuit: * Z:\home\brandon\sketchbook\spice\colpitts_jfet_model.asc

Direct Newton iteration for .op point succeeded.

Date: Tue May 24 14:30:38 2016
Total elapsed time: 1.438 seconds.

tnom = 27
temp = 27
method = modified trap
totiter = 200038
traniter = 200034
tranpoints = 100018
accept = 100018
rejected = 0
matrix size = 7
fillins = 0
solver = Normal
Matrix Compiler1: 490 bytes object code size  0.5/0.3/[0.3]
Matrix Compiler2: off  [0.3]/0.3/0.3


